/*--------------------------------*- C++ -*----------------------------------*\
| =========                 |                                                 |
| \\      /  F ield         | OpenFOAM: The Open Source CFD Toolbox           |
|  \\    /   O peration     | Version:  v1912                                 |
|   \\  /    A nd           | Website:  www.openfoam.com                      |
|    \\/     M anipulation  |                                                 |
\*---------------------------------------------------------------------------*/
FoamFile
{
    version     2.0;
    format      ascii;
    class       volScalarField;
    location    "0";
    object      T;
}
// * * * * * * * * * * * * * * * * * * * * * * * * * * * * * * * * * * * * * //

dimensions      [0 0 0 1 0 0 0];


internalField   uniform 0;

boundaryField
{
    left
    {
        type            codedFixedValue;
        value           uniform 0;
        name            Tsine;
        codeInclude     #{
	#};
        code            #{
	    const fvPatch& boundaryPatch = this->patch();
	    const vectorField& Cf = boundaryPatch.Cf();
	    
	    scalarField& t = *this;
	    
	    scalar A = 100; //amplitude
	    
	    scalar F = 0.2; //frequency
	    
	    scalar L = 200; //level (over y=0)
	    
	    scalar Ph =0.5*M_PI; //phase

	    forAll(Cf,I)
	    {
	    	//t[I] = scalar(0.0);
	    	t[I] = A*sin(2*3.14*F*this->db().time().value() + Ph) +L; //main formula
		//t[I] = scalar(1.0);
	    }
	
	
	#};
        codeOptions     #{
	#};
        codeLibs        #{
	#};
    }
    right
    {
        type            zeroGradient;
    }
    empty
    {
        type            empty;
    }
}


// ************************************************************************* //
